5r7y_ligand_0
 OpenBabel07042216033D

 19 19  0  0  0  0  0  0  0  0999 V2000
    3.1019    1.7692   -2.3175 C   0  0  0  0  0  3  0  0  0  0  0  0
    1.0399    2.5892   -0.6475 C   0  0  0  0  0  3  0  0  0  0  0  0
   -0.1181   -2.9478    1.5425 C   0  0  0  0  0  2  0  0  0  0  0  0
   -1.5181   -1.7918    1.4425 S   0  0  0  0  0  0  0  0  0  0  0  0
   -2.8061   -2.4688    1.6065 O   0  0  0  0  0  0  0  0  0  0  0  0
   -1.5591   -0.8938    2.5865 O   0  0  0  0  0  0  0  0  0  0  0  0
   -1.5041   -0.9478   -0.0335 N   0  0  0  0  0  0  0  0  0  0  0  0
   -0.2471   -0.4848   -0.5705 C   0  0  0  0  0  2  0  0  0  0  0  0
   -0.4351    0.7242   -1.4765 C   0  0  0  0  0  2  0  0  0  0  0  0
    0.8739    1.4992   -1.4865 C   0  0  0  0  0  0  0  0  0  0  0  0
    1.9019    1.0882   -2.3175 C   0  0  0  0  0  3  0  0  0  0  0  0
    3.2759    2.8652   -1.4855 C   0  0  0  0  0  3  0  0  0  0  0  0
    2.2429    3.2802   -0.6515 C   0  0  0  0  0  3  0  0  0  0  0  0
   -2.7938   -0.7202   -0.6151 N   0  0  0  0  0  0  0  0  0  0  0  0
   -3.3248   -1.6052   -1.5508 C   0  0  0  0  0  0  0  0  0  0  0  0
   -3.7800    0.1142   -0.1346 C   0  0  0  0  0  1  0  0  0  0  0  0
   -2.5408   -2.5409   -2.1324 O   0  0  0  0  0  0  0  0  0  0  0  0
   -0.8008   -4.1869    1.9218 C   0  0  0  0  0  1  0  0  0  0  0  0
   -4.8673   -1.5294   -1.9300 C   0  0  0  0  0  1  0  0  0  0  0  0
  1 12  1  0  0  0  0
  2 13  1  0  0  0  0
  3 18  1  0  0  0  0
  4  3  1  0  0  0  0
  4  5  2  0  0  0  0
  4  6  2  0  0  0  0
  7  4  1  0  0  0  0
  8  7  1  0  0  0  0
  9  8  1  0  0  0  0
 10  9  1  0  0  0  0
 10  2  2  0  0  0  0
 11  1  2  0  0  0  0
 11 10  1  0  0  0  0
 12 13  2  0  0  0  0
 14 16  1  0  0  0  0
 14  7  1  0  0  0  0
 15 14  1  0  0  0  0
 17 15  2  0  0  0  0
 19 15  1  0  0  0  0
M  END
>  <TETHERED ATOMS>
3,4,5,6,7,8,9,10,11,1,12,13,2


$$$$
