./reference/5r7y_ligand_ref.xyz
 OpenBabel06282216483D

 13 13  0  0  0  0  0  0  0  0999 V2000
    3.1019    1.7692   -2.3175 C   0  0  0  0  0  3  0  0  0  0  0  0
    1.0399    2.5892   -0.6475 C   0  0  0  0  0  3  0  0  0  0  0  0
   -0.1181   -2.9478    1.5425 C   0  0  0  0  0  1  0  0  0  0  0  0
   -1.5181   -1.7918    1.4425 S   0  0  0  0  0  0  0  0  0  0  0  0
   -2.8061   -2.4688    1.6065 O   0  0  0  0  0  0  0  0  0  0  0  0
   -1.5591   -0.8938    2.5865 O   0  0  0  0  0  0  0  0  0  0  0  0
   -1.5041   -0.9478   -0.0335 N   0  0  0  0  0  2  0  0  0  0  0  0
   -0.2471   -0.4848   -0.5705 C   0  0  0  0  0  2  0  0  0  0  0  0
   -0.4351    0.7242   -1.4765 C   0  0  0  0  0  2  0  0  0  0  0  0
    0.8739    1.4992   -1.4865 C   0  0  0  0  0  0  0  0  0  0  0  0
    1.9019    1.0882   -2.3175 C   0  0  0  0  0  3  0  0  0  0  0  0
    3.2759    2.8652   -1.4855 C   0  0  0  0  0  3  0  0  0  0  0  0
    2.2429    3.2802   -0.6515 C   0  0  0  0  0  3  0  0  0  0  0  0
  1 11  2  0  0  0  0
  1 12  1  0  0  0  0
  4  3  1  0  0  0  0
  4  5  2  0  0  0  0
  4  6  2  0  0  0  0
  7  4  1  0  0  0  0
  8  7  1  0  0  0  0
  9  8  1  0  0  0  0
 10  9  1  0  0  0  0
 10  2  2  0  0  0  0
 11 10  1  0  0  0  0
 12 13  2  0  0  0  0
 13  2  1  0  0  0  0
M  END
$$$$
